
Circuit: *

Doing analysis at TEMP = 27.000000 and TNOM = 27.000000


No. of Data Rows : 1
********************************************
Operating point
********************************************
op_TAB
@gb[i] = -2.47520e-04
@id[current] = 1.005321e-03
@r1[i] = 2.364560e-04
@r2[i] = -2.47520e-04
@r3[i] = -1.10640e-05
@r4[i] = 1.201119e-03
@r5[i] = -1.25284e-03
@r6[i] = 9.646630e-04
@r7[i] = 9.646630e-04
v(1) = 5.076387e+00
v(2) = 4.828240e+00
v(3) = 4.317615e+00
v(4) = 4.862301e+00
v(5) = 8.665725e+00
v(6) = -1.94693e+00
v(7) = -2.95363e+00
v(9) = -1.94693e+00
hc#branch = 4.065839e-05
v6#branch = 9.646630e-04
vcc#branch = -2.36456e-04
op_END
ngspice-31 done
